* SPICE3 file created from user_analog_project_wrapper.ext - technology: sky130A

.subckt user_analog_project_wrapper gpio_analog[0] gpio_analog[10] gpio_analog[11]
+ gpio_analog[12] gpio_analog[13] gpio_analog[14] gpio_analog[15] gpio_analog[16]
+ gpio_analog[17] gpio_analog[1] gpio_analog[2] gpio_analog[3] gpio_analog[4] gpio_analog[5]
+ gpio_analog[6] gpio_analog[7] gpio_analog[8] gpio_analog[9] gpio_noesd[0] gpio_noesd[10]
+ gpio_noesd[11] gpio_noesd[12] gpio_noesd[13] gpio_noesd[14] gpio_noesd[15] gpio_noesd[16]
+ gpio_noesd[17] gpio_noesd[1] gpio_noesd[2] gpio_noesd[3] gpio_noesd[4] gpio_noesd[5]
+ gpio_noesd[6] gpio_noesd[7] gpio_noesd[8] gpio_noesd[9] io_analog[0] io_analog[10]
+ io_analog[1] io_analog[2] io_analog[3] io_analog[4] io_analog[5] io_analog[6] io_analog[7]
+ io_analog[8] io_analog[9] io_clamp_high[0] io_clamp_high[1] io_clamp_high[2] io_clamp_low[0]
+ io_clamp_low[1] io_clamp_low[2] io_in[0] io_in[10] io_in[11] io_in[12] io_in[13]
+ io_in[14] io_in[15] io_in[16] io_in[17] io_in[18] io_in[19] io_in[1] io_in[20] io_in[21]
+ io_in[22] io_in[23] io_in[24] io_in[25] io_in[26] io_in[2] io_in[3] io_in[4] io_in[5]
+ io_in[6] io_in[7] io_in[8] io_in[9] io_in_3v3[0] io_in_3v3[10] io_in_3v3[11] io_in_3v3[12]
+ io_in_3v3[13] io_in_3v3[14] io_in_3v3[15] io_in_3v3[16] io_in_3v3[17] io_in_3v3[18]
+ io_in_3v3[19] io_in_3v3[1] io_in_3v3[20] io_in_3v3[21] io_in_3v3[22] io_in_3v3[23]
+ io_in_3v3[24] io_in_3v3[25] io_in_3v3[26] io_in_3v3[2] io_in_3v3[3] io_in_3v3[4]
+ io_in_3v3[5] io_in_3v3[6] io_in_3v3[7] io_in_3v3[8] io_in_3v3[9] io_oeb[0] io_oeb[10]
+ io_oeb[11] io_oeb[12] io_oeb[13] io_oeb[14] io_oeb[15] io_oeb[16] io_oeb[17] io_oeb[18]
+ io_oeb[19] io_oeb[1] io_oeb[20] io_oeb[21] io_oeb[22] io_oeb[23] io_oeb[24] io_oeb[25]
+ io_oeb[26] io_oeb[2] io_oeb[3] io_oeb[4] io_oeb[5] io_oeb[6] io_oeb[7] io_oeb[8]
+ io_oeb[9] io_out[0] io_out[10] io_out[11] io_out[12] io_out[13] io_out[14] io_out[15]
+ io_out[16] io_out[17] io_out[18] io_out[19] io_out[1] io_out[20] io_out[21] io_out[22]
+ io_out[23] io_out[24] io_out[25] io_out[26] io_out[2] io_out[3] io_out[4] io_out[5]
+ io_out[6] io_out[7] io_out[8] io_out[9] la_data_in[0] la_data_in[100] la_data_in[101]
+ la_data_in[102] la_data_in[103] la_data_in[104] la_data_in[105] la_data_in[106]
+ la_data_in[107] la_data_in[108] la_data_in[109] la_data_in[10] la_data_in[110] la_data_in[111]
+ la_data_in[112] la_data_in[113] la_data_in[114] la_data_in[115] la_data_in[116]
+ la_data_in[117] la_data_in[118] la_data_in[119] la_data_in[11] la_data_in[120] la_data_in[121]
+ la_data_in[122] la_data_in[123] la_data_in[124] la_data_in[125] la_data_in[126]
+ la_data_in[127] la_data_in[12] la_data_in[13] la_data_in[14] la_data_in[15] la_data_in[16]
+ la_data_in[17] la_data_in[18] la_data_in[19] la_data_in[1] la_data_in[20] la_data_in[21]
+ la_data_in[22] la_data_in[23] la_data_in[24] la_data_in[25] la_data_in[26] la_data_in[27]
+ la_data_in[28] la_data_in[29] la_data_in[2] la_data_in[30] la_data_in[31] la_data_in[32]
+ la_data_in[33] la_data_in[34] la_data_in[35] la_data_in[36] la_data_in[37] la_data_in[38]
+ la_data_in[39] la_data_in[3] la_data_in[40] la_data_in[41] la_data_in[42] la_data_in[43]
+ la_data_in[44] la_data_in[45] la_data_in[46] la_data_in[47] la_data_in[48] la_data_in[49]
+ la_data_in[4] la_data_in[50] la_data_in[51] la_data_in[52] la_data_in[53] la_data_in[54]
+ la_data_in[55] la_data_in[56] la_data_in[57] la_data_in[58] la_data_in[59] la_data_in[5]
+ la_data_in[60] la_data_in[61] la_data_in[62] la_data_in[63] la_data_in[64] la_data_in[65]
+ la_data_in[66] la_data_in[67] la_data_in[68] la_data_in[69] la_data_in[6] la_data_in[70]
+ la_data_in[71] la_data_in[72] la_data_in[73] la_data_in[74] la_data_in[75] la_data_in[76]
+ la_data_in[77] la_data_in[78] la_data_in[79] la_data_in[7] la_data_in[80] la_data_in[81]
+ la_data_in[82] la_data_in[83] la_data_in[84] la_data_in[85] la_data_in[86] la_data_in[87]
+ la_data_in[88] la_data_in[89] la_data_in[8] la_data_in[90] la_data_in[91] la_data_in[92]
+ la_data_in[93] la_data_in[94] la_data_in[95] la_data_in[96] la_data_in[97] la_data_in[98]
+ la_data_in[99] la_data_in[9] la_data_out[0] la_data_out[100] la_data_out[101] la_data_out[102]
+ la_data_out[103] la_data_out[104] la_data_out[105] la_data_out[106] la_data_out[107]
+ la_data_out[108] la_data_out[109] la_data_out[10] la_data_out[110] la_data_out[111]
+ la_data_out[112] la_data_out[113] la_data_out[114] la_data_out[115] la_data_out[116]
+ la_data_out[117] la_data_out[118] la_data_out[119] la_data_out[11] la_data_out[120]
+ la_data_out[121] la_data_out[122] la_data_out[123] la_data_out[124] la_data_out[125]
+ la_data_out[126] la_data_out[127] la_data_out[12] la_data_out[13] la_data_out[14]
+ la_data_out[15] la_data_out[16] la_data_out[17] la_data_out[18] la_data_out[19]
+ la_data_out[1] la_data_out[20] la_data_out[21] la_data_out[22] la_data_out[23] la_data_out[24]
+ la_data_out[25] la_data_out[26] la_data_out[27] la_data_out[28] la_data_out[29]
+ la_data_out[2] la_data_out[30] la_data_out[31] la_data_out[32] la_data_out[33] la_data_out[34]
+ la_data_out[35] la_data_out[36] la_data_out[37] la_data_out[38] la_data_out[39]
+ la_data_out[3] la_data_out[40] la_data_out[41] la_data_out[42] la_data_out[43] la_data_out[44]
+ la_data_out[45] la_data_out[46] la_data_out[47] la_data_out[48] la_data_out[49]
+ la_data_out[4] la_data_out[50] la_data_out[51] la_data_out[52] la_data_out[53] la_data_out[54]
+ la_data_out[55] la_data_out[56] la_data_out[57] la_data_out[58] la_data_out[59]
+ la_data_out[5] la_data_out[60] la_data_out[61] la_data_out[62] la_data_out[63] la_data_out[64]
+ la_data_out[65] la_data_out[66] la_data_out[67] la_data_out[68] la_data_out[69]
+ la_data_out[6] la_data_out[70] la_data_out[71] la_data_out[72] la_data_out[73] la_data_out[74]
+ la_data_out[75] la_data_out[76] la_data_out[77] la_data_out[78] la_data_out[79]
+ la_data_out[7] la_data_out[80] la_data_out[81] la_data_out[82] la_data_out[83] la_data_out[84]
+ la_data_out[85] la_data_out[86] la_data_out[87] la_data_out[88] la_data_out[89]
+ la_data_out[8] la_data_out[90] la_data_out[91] la_data_out[92] la_data_out[93] la_data_out[94]
+ la_data_out[95] la_data_out[96] la_data_out[97] la_data_out[98] la_data_out[99]
+ la_data_out[9] la_oenb[0] la_oenb[100] la_oenb[101] la_oenb[102] la_oenb[103] la_oenb[104]
+ la_oenb[105] la_oenb[106] la_oenb[107] la_oenb[108] la_oenb[109] la_oenb[10] la_oenb[110]
+ la_oenb[111] la_oenb[112] la_oenb[113] la_oenb[114] la_oenb[115] la_oenb[116] la_oenb[117]
+ la_oenb[118] la_oenb[119] la_oenb[11] la_oenb[120] la_oenb[121] la_oenb[122] la_oenb[123]
+ la_oenb[124] la_oenb[125] la_oenb[126] la_oenb[127] la_oenb[12] la_oenb[13] la_oenb[14]
+ la_oenb[15] la_oenb[16] la_oenb[17] la_oenb[18] la_oenb[19] la_oenb[1] la_oenb[20]
+ la_oenb[21] la_oenb[22] la_oenb[23] la_oenb[24] la_oenb[25] la_oenb[26] la_oenb[27]
+ la_oenb[28] la_oenb[29] la_oenb[2] la_oenb[30] la_oenb[31] la_oenb[32] la_oenb[33]
+ la_oenb[34] la_oenb[35] la_oenb[36] la_oenb[37] la_oenb[38] la_oenb[39] la_oenb[3]
+ la_oenb[40] la_oenb[41] la_oenb[42] la_oenb[43] la_oenb[44] la_oenb[45] la_oenb[46]
+ la_oenb[47] la_oenb[48] la_oenb[49] la_oenb[4] la_oenb[50] la_oenb[51] la_oenb[52]
+ la_oenb[53] la_oenb[54] la_oenb[55] la_oenb[56] la_oenb[57] la_oenb[58] la_oenb[59]
+ la_oenb[5] la_oenb[60] la_oenb[61] la_oenb[62] la_oenb[63] la_oenb[64] la_oenb[65]
+ la_oenb[66] la_oenb[67] la_oenb[68] la_oenb[69] la_oenb[6] la_oenb[70] la_oenb[71]
+ la_oenb[72] la_oenb[73] la_oenb[74] la_oenb[75] la_oenb[76] la_oenb[77] la_oenb[78]
+ la_oenb[79] la_oenb[7] la_oenb[80] la_oenb[81] la_oenb[82] la_oenb[83] la_oenb[84]
+ la_oenb[85] la_oenb[86] la_oenb[87] la_oenb[88] la_oenb[89] la_oenb[8] la_oenb[90]
+ la_oenb[91] la_oenb[92] la_oenb[93] la_oenb[94] la_oenb[95] la_oenb[96] la_oenb[97]
+ la_oenb[98] la_oenb[99] la_oenb[9] user_clock2 user_irq[0] user_irq[1] user_irq[2]
+ vccd1 vccd2 vdda1 vdda2 vssa1 vssa2 vssd1 vssd2 wb_clk_i wb_rst_i wbs_ack_o wbs_adr_i[0]
+ wbs_adr_i[10] wbs_adr_i[11] wbs_adr_i[12] wbs_adr_i[13] wbs_adr_i[14] wbs_adr_i[15]
+ wbs_adr_i[16] wbs_adr_i[17] wbs_adr_i[18] wbs_adr_i[19] wbs_adr_i[1] wbs_adr_i[20]
+ wbs_adr_i[21] wbs_adr_i[22] wbs_adr_i[23] wbs_adr_i[24] wbs_adr_i[25] wbs_adr_i[26]
+ wbs_adr_i[27] wbs_adr_i[28] wbs_adr_i[29] wbs_adr_i[2] wbs_adr_i[30] wbs_adr_i[31]
+ wbs_adr_i[3] wbs_adr_i[4] wbs_adr_i[5] wbs_adr_i[6] wbs_adr_i[7] wbs_adr_i[8] wbs_adr_i[9]
+ wbs_cyc_i wbs_dat_i[0] wbs_dat_i[10] wbs_dat_i[11] wbs_dat_i[12] wbs_dat_i[13] wbs_dat_i[14]
+ wbs_dat_i[15] wbs_dat_i[16] wbs_dat_i[17] wbs_dat_i[18] wbs_dat_i[19] wbs_dat_i[1]
+ wbs_dat_i[20] wbs_dat_i[21] wbs_dat_i[22] wbs_dat_i[23] wbs_dat_i[24] wbs_dat_i[25]
+ wbs_dat_i[26] wbs_dat_i[27] wbs_dat_i[28] wbs_dat_i[29] wbs_dat_i[2] wbs_dat_i[30]
+ wbs_dat_i[31] wbs_dat_i[3] wbs_dat_i[4] wbs_dat_i[5] wbs_dat_i[6] wbs_dat_i[7] wbs_dat_i[8]
+ wbs_dat_i[9] wbs_dat_o[0] wbs_dat_o[10] wbs_dat_o[11] wbs_dat_o[12] wbs_dat_o[13]
+ wbs_dat_o[14] wbs_dat_o[15] wbs_dat_o[16] wbs_dat_o[17] wbs_dat_o[18] wbs_dat_o[19]
+ wbs_dat_o[1] wbs_dat_o[20] wbs_dat_o[21] wbs_dat_o[22] wbs_dat_o[23] wbs_dat_o[24]
+ wbs_dat_o[25] wbs_dat_o[26] wbs_dat_o[27] wbs_dat_o[28] wbs_dat_o[29] wbs_dat_o[2]
+ wbs_dat_o[30] wbs_dat_o[31] wbs_dat_o[3] wbs_dat_o[4] wbs_dat_o[5] wbs_dat_o[6]
+ wbs_dat_o[7] wbs_dat_o[8] wbs_dat_o[9] wbs_sel_i[0] wbs_sel_i[1] wbs_sel_i[2] wbs_sel_i[3]
+ wbs_stb_i wbs_we_i
C0 divider_2/mc2 divider_2/nor_0/A 0.04fF
C1 divider_0/tspc_2/Z2 divider_0/tspc_2/Z3 0.16fF
C2 divider_0/nor_0/A divider_0/tspc_2/Z4 0.21fF
C3 divider_1/prescaler_0/tspc_1/Z4 divider_1/clk 0.12fF
C4 pd_0/tspc_r_0/Z2 pd_0/tspc_r_0/Z4 0.14fF
C5 divider_2/prescaler_0/tspc_2/a_740_n680# divider_2/prescaler_0/tspc_2/Z3 0.33fF
C6 ro_complete_1/a2 ro_complete_1/cbank_0/switch_2/vin 0.14fF
C7 ro_complete_0/a4 ro_complete_0/cbank_2/switch_1/vin 0.09fF
C8 ro_complete_0/cbank_0/switch_3/vin ro_complete_0/cbank_0/v 1.30fF
C9 ro_complete_1/cbank_2/switch_1/vin ro_complete_1/cbank_2/switch_2/vin 0.20fF
C10 divider_2/prescaler_0/tspc_0/a_740_n680# divider_2/prescaler_0/tspc_0/Z3 0.33fF
C11 divider_0/nor_0/B divider_0/tspc_1/Z4 0.21fF
C12 divider_0/and_0/A divider_0/and_0/B 0.18fF
C13 divider_1/tspc_2/a_630_n680# divider_1/nor_0/A 0.35fF
C14 divider_1/prescaler_0/tspc_1/Q divider_1/clk 0.60fF
C15 pd_0/R pd_0/and_pd_0/Out1 0.33fF
C16 pd_0/REF pd_0/tspc_r_1/Z4 0.02fF
C17 pd_0/UP pd_0/tspc_r_1/Qbar 0.21fF
C18 ro_complete_0/cbank_2/switch_1/vin ro_complete_0/cbank_2/switch_2/vin 0.20fF
C19 divider_2/tspc_1/Q divider_2/nor_1/B 0.22fF
C20 divider_0/prescaler_0/tspc_0/a_740_n680# divider_0/prescaler_0/Out 0.21fF
C21 divider_0/nor_1/Z1 divider_0/and_0/B 0.78fF
C22 divider_2/tspc_1/Q divider_2/tspc_0/Z2 0.14fF
C23 divider_0/prescaler_0/tspc_2/D divider_0/prescaler_0/nand_0/z1 0.24fF
C24 divider_1/tspc_1/Z3 divider_1/nor_0/B 0.38fF
C25 divider_1/prescaler_0/tspc_0/Z2 divider_1/prescaler_0/tspc_0/D 0.09fF
C26 cp_0/a_1710_0# cp_0/a_1710_n2840# 0.83fF
C27 divider_2/and_0/OUT divider_2/and_0/out1 0.31fF
C28 divider_2/tspc_1/Z4 divider_2/tspc_1/a_630_n680# 0.12fF
C29 ro_complete_1/cbank_1/switch_1/vin ro_complete_1/cbank_1/switch_2/vin 0.20fF
C30 ro_complete_0/cbank_1/switch_5/vin ro_complete_0/cbank_1/v 1.30fF
C31 divider_1/tspc_1/Q divider_1/tspc_0/Z4 0.15fF
C32 divider_0/prescaler_0/Out divider_0/prescaler_0/tspc_1/Z4 0.28fF
C33 divider_0/prescaler_0/tspc_0/Z2 divider_0/prescaler_0/tspc_0/D 0.09fF
C34 divider_0/prescaler_0/tspc_2/D divider_0/clk 0.26fF
C35 pd_0/DIV pd_0/tspc_r_0/Z1 0.17fF
C36 pd_0/tspc_r_0/Qbar1 pd_0/DOWN 0.11fF
C37 divider_2/tspc_1/Z1 divider_2/tspc_1/Z3 0.06fF
C38 cp_0/a_1710_0# cp_0/down 0.32fF
C39 pd_1/tspc_r_0/z5 pd_1/tspc_r_1/z5 0.02fF
C40 pd_1/tspc_r_1/Qbar pd_1/and_pd_0/Z1 0.02fF
C41 pd_1/REF pd_1/tspc_r_1/Qbar1 0.12fF
C42 divider_2/nor_0/A divider_2/and_0/B 0.08fF
C43 divider_1/prescaler_0/tspc_0/Z3 divider_1/prescaler_0/tspc_0/a_630_n680# 0.05fF
C44 ro_complete_0/a4 ro_complete_0/cbank_1/switch_1/vin 0.09fF
C45 io_clamp_low[1] io_clamp_high[1] 0.53fF
C46 ro_complete_1/cbank_1/switch_1/vin ro_complete_1/cbank_1/v 1.30fF
C47 divider_1/mc2 divider_1/nor_0/A 0.04fF
C48 divider_0/prescaler_0/Out divider_0/prescaler_0/tspc_1/Q 0.91fF
C49 divider_1/prescaler_0/tspc_1/Z2 divider_1/prescaler_0/tspc_1/Z4 0.36fF
C50 pd_0/R pd_0/tspc_r_1/Z2 0.21fF
C51 divider_1/nor_0/B divider_1/and_0/B 0.31fF
C52 divider_1/prescaler_0/tspc_2/Z4 divider_1/clk 0.12fF
C53 divider_2/prescaler_0/tspc_2/Z2 divider_2/and_0/OUT 0.05fF
C54 ro_complete_0/cbank_2/switch_3/vin ro_complete_0/cbank_2/switch_4/vin 0.20fF
C55 divider_2/tspc_1/Q divider_2/tspc_0/Z4 0.15fF
C56 divider_0/prescaler_0/tspc_2/Z3 divider_0/prescaler_0/tspc_2/D 0.05fF
C57 divider_1/nor_1/Z1 divider_1/nor_0/B 0.18fF
C58 divider_1/prescaler_0/tspc_1/Z2 divider_1/prescaler_0/tspc_1/Q 0.06fF
C59 pd_1/DOWN pd_1/tspc_r_1/Qbar 0.02fF
C60 pd_0/UP pd_0/and_pd_0/Z1 0.06fF
C61 divider_1/nor_0/A divider_1/tspc_2/Q 0.55fF
C62 divider_2/prescaler_0/tspc_1/Q divider_2/prescaler_0/tspc_0/D 0.32fF
C63 divider_2/prescaler_0/tspc_2/a_630_n680# divider_2/clk 0.01fF
C64 divider_0/mc2 divider_0/nor_0/B 0.06fF
C65 ro_complete_0/a5 ro_complete_0/cbank_2/v 0.08fF
C66 ro_complete_0/a0 ro_complete_0/cbank_1/switch_5/vin 0.09fF
C67 divider_0/tspc_1/Z1 divider_0/tspc_1/Z3 0.06fF
C68 divider_0/nor_0/Z1 divider_0/and_0/A 0.80fF
C69 divider_2/nor_1/B divider_2/nor_0/B 0.47fF
C70 divider_1/prescaler_0/tspc_2/Z3 divider_1/prescaler_0/tspc_2/Z4 0.65fF
C71 divider_1/prescaler_0/tspc_0/Z4 divider_1/prescaler_0/tspc_0/D 0.11fF
C72 pd_1/tspc_r_1/Z2 pd_1/tspc_r_1/Z4 0.14fF
C73 pd_1/tspc_r_0/Z4 pd_1/tspc_r_0/z5 0.04fF
C74 divider_2/tspc_0/Z2 divider_2/nor_0/B 0.20fF
C75 divider_2/prescaler_0/Out divider_2/prescaler_0/tspc_1/Z3 0.11fF
C76 ro_complete_1/cbank_1/switch_0/vin ro_complete_1/cbank_1/switch_1/vin 0.19fF
C77 ro_complete_0/cbank_0/switch_1/vin ro_complete_0/cbank_0/switch_2/vin 0.20fF
C78 divider_2/tspc_2/Z1 divider_2/tspc_2/Z3 0.06fF
C79 ro_complete_0/cbank_2/switch_4/vin ro_complete_0/cbank_2/v 1.30fF
C80 divider_1/tspc_1/Q divider_1/tspc_0/a_630_n680# 0.01fF
C81 divider_0/tspc_2/Z2 divider_0/tspc_2/Z4 0.36fF
C82 divider_1/tspc_1/Z1 divider_1/tspc_2/Q 0.01fF
C83 pd_1/UP pd_1/and_pd_0/Out1 0.33fF
C84 divider_2/tspc_1/Z2 divider_2/tspc_1/Z4 0.36fF
C85 divider_2/prescaler_0/tspc_2/a_630_n680# divider_2/prescaler_0/tspc_2/Z3 0.05fF
C86 divider_2/prescaler_0/tspc_2/a_740_n680# divider_2/prescaler_0/tspc_2/Z4 0.08fF
C87 divider_1/prescaler_0/tspc_0/Z3 divider_1/prescaler_0/tspc_0/a_740_n680# 0.33fF
C88 divider_0/mc2 divider_0/and_0/B 0.20fF
C89 ro_complete_1/a4 ro_complete_1/cbank_2/v 0.05fF
C90 ro_complete_1/cbank_0/switch_5/vin ro_complete_1/a0 0.09fF
C91 divider_0/tspc_0/Z3 divider_0/tspc_0/Z1 0.06fF
C92 divider_0/prescaler_0/tspc_2/Z1 divider_0/prescaler_0/tspc_2/Z3 0.06fF
C93 pd_0/tspc_r_1/Z3 pd_0/tspc_r_1/z5 0.11fF
C94 divider_2/nor_1/Z1 divider_2/nor_0/B 0.18fF
C95 divider_1/and_0/OUT divider_1/and_0/Z1 0.04fF
C96 divider_1/tspc_2/a_630_n680# divider_1/tspc_2/Z2 0.01fF
C97 divider_1/prescaler_0/tspc_2/Q divider_1/clk 0.05fF
C98 divider_2/prescaler_0/Out divider_2/clk 0.51fF
C99 ro_complete_1/cbank_0/switch_0/vin ro_complete_1/cbank_0/v 1.30fF
C100 divider_0/prescaler_0/tspc_0/a_630_n680# divider_0/prescaler_0/Out 0.04fF
C101 divider_2/tspc_1/Q divider_2/tspc_0/a_630_n680# 0.01fF
C102 divider_0/and_0/OUT divider_0/prescaler_0/tspc_2/Q 0.04fF
C103 divider_0/prescaler_0/tspc_1/Z3 divider_0/clk 0.45fF
C104 pd_1/tspc_r_1/Qbar pd_1/R 0.03fF
C105 divider_2/tspc_0/Z4 divider_2/nor_0/B 0.02fF
C106 divider_1/and_0/out1 divider_1/and_0/B 0.18fF
C107 ro_complete_0/cbank_0/v ro_complete_0/cbank_2/v 0.04fF
C108 divider_0/tspc_0/Z3 divider_0/nor_1/B 0.38fF
C109 divider_2/prescaler_0/tspc_0/a_630_n680# divider_2/prescaler_0/Out 0.04fF
C110 divider_1/prescaler_0/tspc_2/Z3 divider_1/prescaler_0/tspc_2/Q 0.05fF
C111 pd_0/tspc_r_0/Z3 pd_0/tspc_r_0/Z2 0.25fF
C112 pd_1/tspc_r_1/Z3 pd_1/UP 0.03fF
C113 ro_complete_0/cbank_1/switch_3/vin ro_complete_0/cbank_1/switch_2/vin 0.20fF
C114 divider_2/mc2 divider_2/and_0/B 0.20fF
C115 divider_1/prescaler_0/m1_2700_2190# divider_1/and_0/OUT 0.14fF
C116 pd_1/DIV pd_1/tspc_r_0/Z3 0.65fF
C117 pd_0/REF pd_0/tspc_r_1/Z3 0.65fF
C118 divider_2/prescaler_0/tspc_2/Z2 divider_2/prescaler_0/tspc_2/D 0.09fF
C119 divider_2/prescaler_0/tspc_2/a_740_n680# divider_2/prescaler_0/tspc_2/Q 0.20fF
C120 divider_0/tspc_0/Z3 divider_0/tspc_0/a_630_n680# 0.05fF
C121 ro_complete_1/a0 ro_complete_1/cbank_2/switch_4/vin 0.13fF
C122 ro_complete_1/cbank_0/v ro_complete_1/cbank_1/v 1.27fF
C123 divider_0/prescaler_0/tspc_2/Z4 divider_0/prescaler_0/tspc_2/D 0.11fF
C124 divider_2/prescaler_0/tspc_1/Z2 divider_2/prescaler_0/Out 0.19fF
C125 divider_2/prescaler_0/tspc_1/Q divider_2/prescaler_0/nand_1/z1 0.22fF
C126 divider_2/prescaler_0/tspc_2/Q divider_2/prescaler_0/tspc_0/D 0.04fF
C127 ro_complete_0/a0 ro_complete_0/cbank_1/v 0.05fF
C128 divider_1/tspc_1/Q divider_1/tspc_1/a_630_n680# 0.04fF
C129 divider_1/nor_0/Z1 divider_1/nor_0/B 0.06fF
C130 divider_0/prescaler_0/tspc_2/Z3 divider_0/clk 0.45fF
C131 divider_2/prescaler_0/m1_2700_2190# divider_2/and_0/OUT 0.14fF
C132 divider_2/prescaler_0/Out divider_2/prescaler_0/tspc_1/Z4 0.28fF
C133 cp_0/a_1710_n2840# cp_0/upbar 0.29fF
C134 pd_1/R pd_1/REF 0.61fF
C135 divider_2/tspc_2/Z1 divider_2/tspc_2/Z4 0.00fF
C136 ro_complete_1/a3 ro_complete_1/cbank_1/switch_2/vin 0.09fF
C137 ro_complete_1/cbank_0/switch_2/vin ro_complete_1/cbank_0/v 1.30fF
C138 ro_complete_0/cbank_2/switch_0/vin ro_complete_0/cbank_2/v 1.45fF
C139 divider_0/prescaler_0/tspc_1/Z3 divider_0/prescaler_0/tspc_1/Z4 0.65fF
C140 divider_1/tspc_1/Z2 divider_1/tspc_1/a_630_n680# 0.01fF
C141 divider_1/tspc_1/Z3 divider_1/tspc_2/Q 0.45fF
C142 divider_1/prescaler_0/tspc_1/Q divider_1/prescaler_0/tspc_2/Q 0.19fF
C143 divider_1/prescaler_0/tspc_2/a_740_n680# divider_1/clk 0.01fF
C144 divider_2/prescaler_0/Out divider_2/prescaler_0/tspc_1/Q 0.91fF
C145 divider_2/prescaler_0/tspc_2/a_630_n680# divider_2/prescaler_0/tspc_2/Z4 0.12fF
C146 divider_2/prescaler_0/tspc_2/Z1 divider_2/prescaler_0/tspc_2/Z2 1.07fF
C147 cp_0/upbar cp_0/down 0.02fF
C148 ro_complete_0/a2 ro_complete_0/cbank_2/switch_2/vin 0.14fF
C149 ro_complete_0/cbank_0/switch_2/vin ro_complete_0/cbank_0/v 1.30fF
C150 divider_0/tspc_2/Q divider_0/tspc_1/Z2 0.14fF
C151 divider_0/prescaler_0/tspc_0/Z2 divider_0/prescaler_0/tspc_0/Z4 0.36fF
C152 divider_0/prescaler_0/tspc_0/Z3 divider_0/prescaler_0/Out 0.05fF
C153 ro_complete_1/a3 ro_complete_1/cbank_1/v 0.05fF
C154 divider_1/mc2 divider_1/and_0/B 0.20fF
C155 divider_0/tspc_1/Z2 divider_0/nor_0/A 0.15fF
C156 divider_0/prescaler_0/Out divider_0/tspc_2/Z3 0.45fF
C157 divider_0/prescaler_0/tspc_2/Z1 divider_0/prescaler_0/tspc_2/Z4 0.00fF
C158 divider_0/prescaler_0/tspc_1/Z3 divider_0/prescaler_0/tspc_1/Q 0.21fF
C159 divider_0/prescaler_0/tspc_0/a_740_n680# divider_0/clk 0.14fF
C160 divider_2/tspc_1/Q divider_2/tspc_1/a_630_n680# 0.04fF
C161 divider_2/prescaler_0/tspc_0/a_740_n680# divider_2/prescaler_0/tspc_0/Z4 0.08fF
C162 divider_2/prescaler_0/tspc_0/Z3 divider_2/prescaler_0/tspc_0/Z1 0.06fF
C163 divider_0/and_0/B divider_0/and_0/Z1 0.07fF
C164 pd_0/UP pd_0/tspc_r_1/z5 0.03fF
C165 divider_1/nor_0/A divider_1/tspc_2/Z2 0.23fF
C166 divider_1/prescaler_0/tspc_0/D divider_1/clk 0.29fF
C167 ro_complete_1/a2 ro_complete_1/cbank_2/switch_2/vin 0.14fF
C168 ro_complete_0/a3 ro_complete_0/cbank_1/v 0.05fF
C169 ro_complete_1/cbank_2/switch_0/vin ro_complete_1/cbank_2/v 1.45fF
C170 divider_0/prescaler_0/tspc_1/Z4 divider_0/clk 0.12fF
C171 divider_2/nor_1/B divider_2/Out 0.22fF
C172 divider_1/prescaler_0/tspc_2/a_740_n680# divider_1/prescaler_0/tspc_2/Z3 0.33fF
C173 divider_2/prescaler_0/tspc_1/a_630_n680# divider_2/prescaler_0/tspc_1/Z3 0.05fF
C174 divider_0/mc2 divider_0/and_0/OUT 0.05fF
C175 ro_complete_1/cbank_0/switch_2/vin ro_complete_1/a3 0.09fF
C176 divider_0/tspc_2/Q divider_0/tspc_2/a_630_n680# 0.04fF
C177 divider_0/tspc_1/Z2 divider_0/tspc_1/a_630_n680# 0.01fF
C178 divider_0/prescaler_0/tspc_1/a_630_n680# divider_0/prescaler_0/tspc_1/Z2 0.01fF
C179 divider_1/nor_1/B divider_1/nor_0/B 0.47fF
C180 divider_0/tspc_2/a_630_n680# divider_0/nor_0/A 0.35fF
C181 divider_0/prescaler_0/tspc_1/Q divider_0/clk 0.60fF
C182 pd_0/tspc_r_0/Qbar1 pd_0/tspc_r_0/Qbar 0.01fF
C183 pd_0/tspc_r_0/Z3 pd_0/R 0.27fF
C184 pd_1/tspc_r_1/Z3 pd_1/tspc_r_1/Z4 0.20fF
C185 pd_1/REF pd_1/tspc_r_1/z5 0.04fF
C186 ro_complete_1/cbank_0/switch_1/vin ro_complete_1/a4 0.09fF
C187 io_clamp_low[0] io_clamp_high[0] 0.53fF
C188 ro_complete_0/cbank_2/switch_5/vin ro_complete_0/cbank_2/v 1.30fF
C189 divider_1/prescaler_0/m1_2700_2190# divider_1/prescaler_0/tspc_2/D 0.16fF
C190 pd_0/tspc_r_1/Z3 pd_0/tspc_r_1/Qbar1 0.38fF
C191 divider_1/and_0/OUT divider_1/and_0/out1 0.31fF
C192 divider_1/tspc_1/Z4 divider_1/tspc_1/a_630_n680# 0.12fF
C193 divider_2/prescaler_0/tspc_2/a_630_n680# divider_2/prescaler_0/tspc_2/Q 0.04fF
C194 divider_2/prescaler_0/tspc_1/a_630_n680# divider_2/clk 0.01fF
C195 divider_1/tspc_1/Z1 divider_1/tspc_1/Z3 0.06fF
C196 pd_1/tspc_r_1/Z1 pd_1/tspc_r_1/Z2 0.71fF
C197 pd_1/DOWN pd_1/tspc_r_0/Qbar1 0.11fF
C198 pd_0/tspc_r_1/Qbar pd_0/and_pd_0/Z1 0.02fF
C199 divider_2/prescaler_0/tspc_1/Z1 divider_2/prescaler_0/tspc_1/Z3 0.06fF
C200 divider_1/nor_0/A divider_1/and_0/B 0.08fF
C201 divider_2/nor_0/B divider_2/tspc_1/a_630_n680# 0.35fF
C202 divider_2/prescaler_0/tspc_2/Q divider_2/prescaler_0/nand_1/z1 0.01fF
C203 divider_2/prescaler_0/tspc_2/Z2 divider_2/clk 0.11fF
C204 divider_0/tspc_1/Z3 divider_0/tspc_1/Q 0.05fF
C205 divider_0/prescaler_0/tspc_0/a_740_n680# divider_0/prescaler_0/tspc_1/Z4 0.01fF
C206 divider_0/prescaler_0/Out divider_0/prescaler_0/tspc_1/Z1 0.08fF
C207 divider_2/mc2 divider_2/and_0/OUT 0.05fF
C208 divider_0/nor_1/B divider_0/tspc_0/Z1 0.03fF
C209 divider_0/prescaler_0/tspc_2/Z4 divider_0/clk 0.12fF
C210 divider_2/prescaler_0/m1_2700_2190# divider_2/prescaler_0/tspc_2/D 0.16fF
C211 divider_1/prescaler_0/tspc_2/Z2 divider_1/and_0/OUT 0.05fF
C212 pd_1/DOWN pd_1/and_pd_0/Z1 0.07fF
C213 pd_1/R pd_1/tspc_r_1/Qbar1 0.30fF
C214 ro_complete_1/cbank_0/switch_3/vin ro_complete_1/cbank_0/switch_2/vin 0.20fF
C215 ro_complete_0/cbank_0/switch_3/vin ro_complete_0/cbank_0/switch_2/vin 0.20fF
C216 divider_2/tspc_2/Z3 divider_2/tspc_2/Z4 0.65fF
C217 ro_complete_1/a3 ro_complete_1/cbank_2/switch_1/vin 0.13fF
C218 divider_0/tspc_1/Z1 divider_0/tspc_1/Z4 0.00fF
C219 divider_0/prescaler_0/tspc_0/a_740_n680# divider_0/prescaler_0/tspc_1/Q 0.15fF
C220 io_clamp_high[2] io_analog[6] 0.53fF
C221 divider_1/prescaler_0/tspc_1/Q divider_1/prescaler_0/tspc_0/D 0.32fF
C222 divider_1/prescaler_0/tspc_2/a_630_n680# divider_1/clk 0.01fF
C223 divider_2/prescaler_0/tspc_2/Z2 divider_2/prescaler_0/tspc_2/Z3 0.16fF
C224 ro_complete_0/cbank_0/switch_4/vin ro_complete_0/cbank_0/switch_5/vin 0.20fF
C225 divider_1/prescaler_0/tspc_0/Z3 divider_1/prescaler_0/tspc_0/Z1 0.06fF
C226 ro_complete_1/a5 ro_complete_1/cbank_2/v 0.08fF
C227 divider_0/prescaler_0/m1_2700_2190# divider_0/nor_0/A 0.01fF
C228 divider_0/prescaler_0/Out divider_0/tspc_2/Z4 0.12fF
C229 divider_0/prescaler_0/tspc_2/Z3 divider_0/prescaler_0/tspc_2/Z4 0.65fF
C230 divider_0/prescaler_0/tspc_0/a_630_n680# divider_0/clk 0.01fF
C231 divider_1/tspc_0/Z2 divider_1/nor_0/B 0.20fF
C232 divider_1/prescaler_0/Out divider_1/prescaler_0/tspc_1/Z3 0.11fF
C233 divider_2/prescaler_0/tspc_1/Z2 divider_2/prescaler_0/tspc_1/a_630_n680# 0.01fF
C234 divider_1/tspc_2/Z1 divider_1/tspc_2/Z3 0.06fF
C235 pd_1/tspc_r_0/Z2 pd_1/tspc_r_0/Z3 0.25fF
C236 pd_0/tspc_r_1/Z2 pd_0/tspc_r_1/Z4 0.14fF
C237 filter_0/a_4216_n2998# filter_0/v 0.31fF
C238 ro_complete_0/cbank_2/switch_1/vin ro_complete_0/cbank_2/switch_0/vin 0.19fF
C239 ro_complete_0/cbank_2/switch_3/vin ro_complete_0/cbank_2/v 1.30fF
C240 divider_1/tspc_0/Z3 divider_1/Out 0.05fF
C241 divider_1/prescaler_0/tspc_0/a_630_n680# divider_1/prescaler_0/tspc_0/Z2 0.01fF
C242 ro_complete_1/a0 ro_complete_1/cbank_2/switch_5/vin 0.09fF
C243 divider_1/tspc_1/Z2 divider_1/tspc_1/Z4 0.36fF
C244 divider_1/prescaler_0/tspc_2/a_630_n680# divider_1/prescaler_0/tspc_2/Z3 0.05fF
C245 divider_1/prescaler_0/tspc_2/a_740_n680# divider_1/prescaler_0/tspc_2/Z4 0.08fF
C246 divider_2/tspc_0/a_630_n680# divider_2/Out 0.04fF
C247 divider_2/prescaler_0/tspc_1/a_630_n680# divider_2/prescaler_0/tspc_1/Z4 0.12fF
C248 pd_1/tspc_r_0/Qbar1 pd_1/R 0.01fF
C249 divider_2/and_0/OUT divider_2/and_0/B 0.01fF
C250 divider_1/mc2 divider_1/and_0/OUT 0.05fF
C251 divider_0/tspc_2/Q divider_0/nor_0/A 0.55fF
C252 divider_0/tspc_1/Z2 divider_0/nor_0/B 0.30fF
C253 divider_0/tspc_0/a_630_n680# divider_0/nor_1/B 0.35fF
C254 divider_1/prescaler_0/m1_2700_2190# divider_1/prescaler_0/tspc_1/Z3 0.33fF
C255 divider_0/and_0/OUT divider_0/and_0/Z1 0.04fF
C256 divider_0/tspc_2/a_630_n680# divider_0/tspc_2/Z2 0.01fF
C257 divider_0/prescaler_0/tspc_2/Q divider_0/clk 0.05fF
C258 divider_2/prescaler_0/tspc_0/a_740_n680# divider_2/clk 0.14fF
C259 divider_1/prescaler_0/Out divider_1/clk 0.51fF
C260 pd_1/DIV pd_1/tspc_r_0/Z2 0.19fF
C261 pd_0/DOWN pd_0/R 0.36fF
C262 pd_0/tspc_r_0/Z3 pd_0/tspc_r_0/Z4 0.20fF
C263 pd_0/DIV pd_0/tspc_r_0/z5 0.04fF
C264 pd_0/tspc_r_0/Z1 pd_0/tspc_r_0/Z2 0.71fF
C265 divider_2/tspc_1/Z2 divider_2/nor_0/B 0.30fF
C266 divider_2/prescaler_0/tspc_2/a_740_n680# divider_2/prescaler_0/tspc_2/a_630_n680# 0.19fF
C267 divider_2/prescaler_0/tspc_1/a_630_n680# divider_2/prescaler_0/tspc_1/Q 0.04fF
C268 pd_1/R pd_1/and_pd_0/Z1 0.02fF
C269 pd_1/tspc_r_1/Qbar1 pd_1/tspc_r_1/z5 0.20fF
C270 ro_complete_0/cbank_1/switch_3/vin ro_complete_0/cbank_1/switch_4/vin 0.20fF
C271 divider_0/tspc_1/a_630_n680# divider_0/nor_1/B 0.00fF
C272 divider_1/tspc_0/Z4 divider_1/nor_0/B 0.02fF
C273 divider_1/prescaler_0/m1_2700_2190# divider_1/prescaler_0/nand_0/z1 0.07fF
C274 divider_0/and_0/out1 divider_0/and_0/B 0.18fF
C275 pd_0/tspc_r_0/Z4 pd_0/tspc_r_1/Z4 0.02fF
C276 pd_0/DOWN pd_0/and_pd_0/Out1 0.12fF
C277 pd_0/REF pd_0/tspc_r_1/Z1 0.17fF
C278 pd_0/tspc_r_1/Qbar1 pd_0/UP 0.11fF
C279 divider_2/nor_0/Z1 divider_2/and_0/B 0.18fF
C280 divider_2/prescaler_0/tspc_1/Z1 divider_2/prescaler_0/tspc_1/Z2 1.07fF
C281 divider_2/prescaler_0/tspc_0/Z1 divider_2/prescaler_0/tspc_0/Z2 1.07fF
C282 divider_2/prescaler_0/Out divider_2/tspc_2/Z3 0.45fF
C283 ro_complete_0/a4 ro_complete_0/cbank_1/v 0.05fF
C284 divider_2/prescaler_0/tspc_0/a_630_n680# divider_2/prescaler_0/tspc_0/a_740_n680# 0.19fF
C285 divider_0/tspc_2/Q divider_0/tspc_1/a_630_n680# 0.01fF
C286 divider_0/prescaler_0/tspc_0/a_740_n680# divider_0/prescaler_0/tspc_0/a_630_n680# 0.19fF
C287 divider_0/nor_0/B divider_0/tspc_2/a_630_n680# 0.01fF
C288 divider_0/tspc_1/Q divider_0/tspc_0/Z2 0.14fF
C289 divider_0/prescaler_0/tspc_2/Z3 divider_0/prescaler_0/tspc_2/Q 0.05fF
C290 divider_2/prescaler_0/m1_2700_2190# divider_2/prescaler_0/tspc_1/Z3 0.33fF
C291 divider_2/prescaler_0/tspc_0/Z3 divider_2/prescaler_0/tspc_0/Z2 0.16fF
C292 divider_1/prescaler_0/m1_2700_2190# divider_1/clk 0.01fF
C293 pd_1/DOWN pd_1/R 0.36fF
C294 divider_2/prescaler_0/tspc_1/Z1 divider_2/prescaler_0/tspc_1/Z4 0.00fF
C295 divider_2/prescaler_0/tspc_0/D divider_2/prescaler_0/nand_1/z1 0.21fF
C296 divider_2/nor_0/B divider_2/and_0/A 0.26fF
C297 divider_2/tspc_1/Q divider_2/tspc_0/Z3 0.45fF
C298 divider_1/prescaler_0/tspc_0/a_630_n680# divider_1/prescaler_0/tspc_0/Z4 0.12fF
C299 divider_0/prescaler_0/m1_2700_2190# divider_0/prescaler_0/tspc_1/a_630_n680# 0.19fF
C300 ro_complete_1/cbank_1/v ro_complete_1/cbank_2/v 1.36fF
C301 divider_1/nor_1/B divider_1/Out 0.22fF
C302 divider_2/prescaler_0/m1_2700_2190# divider_2/prescaler_0/nand_0/z1 0.07fF
C303 divider_1/prescaler_0/tspc_2/Z2 divider_1/prescaler_0/tspc_2/D 0.09fF
C304 divider_1/prescaler_0/tspc_2/a_740_n680# divider_1/prescaler_0/tspc_2/Q 0.20fF
C305 divider_1/mc2 divider_1/nor_1/B 0.15fF
C306 divider_0/tspc_1/Z3 divider_0/tspc_1/Z4 0.65fF
C307 divider_0/prescaler_0/tspc_0/Z3 divider_0/clk 0.64fF
C308 io_clamp_low[1] io_analog[5] 0.53fF
C309 divider_2/prescaler_0/tspc_0/a_740_n680# divider_2/prescaler_0/tspc_1/Z2 0.01fF
C310 divider_1/prescaler_0/tspc_1/Z2 divider_1/prescaler_0/Out 0.19fF
C311 pd_0/R pd_0/tspc_r_1/Z3 0.29fF
C312 divider_2/prescaler_0/m1_2700_2190# divider_2/clk 0.01fF
C313 divider_1/prescaler_0/tspc_1/Q divider_1/prescaler_0/nand_1/z1 0.22fF
C314 divider_1/prescaler_0/tspc_2/Q divider_1/prescaler_0/tspc_0/D 0.04fF
C315 cp_0/a_10_n50# cp_0/vbias 0.19fF
C316 divider_2/nor_0/B divider_2/tspc_1/Z4 0.21fF
C317 divider_2/prescaler_0/tspc_2/Z2 divider_2/prescaler_0/tspc_2/Z4 0.36fF
C318 ro_complete_0/a5 ro_complete_0/cbank_1/switch_0/vin 0.09fF
C319 ro_complete_0/cbank_0/switch_4/vin ro_complete_0/cbank_0/v 1.30fF
C320 divider_2/mc2 divider_2/nor_1/B 0.15fF
C321 ro_complete_1/a1 ro_complete_1/cbank_1/v 0.05fF
C322 divider_2/prescaler_0/tspc_0/a_740_n680# divider_2/prescaler_0/tspc_1/Z4 0.01fF
C323 divider_1/prescaler_0/Out divider_1/prescaler_0/tspc_1/Z4 0.28fF
C324 pd_1/tspc_r_0/Qbar pd_1/tspc_r_0/Qbar1 0.01fF
C325 divider_2/prescaler_0/tspc_0/Z1 divider_2/prescaler_0/tspc_0/Z4 0.00fF
C326 divider_1/tspc_2/Z1 divider_1/tspc_2/Z4 0.00fF
C327 filter_0/a_4216_n5230# filter_0/v 0.19fF
C328 ro_complete_0/a1 ro_complete_0/cbank_1/v 0.05fF
C329 ro_complete_1/a0 ro_complete_1/cbank_2/v 0.05fF
C330 divider_0/prescaler_0/tspc_1/Q divider_0/prescaler_0/tspc_2/Q 0.19fF
C331 divider_0/prescaler_0/tspc_2/a_740_n680# divider_0/clk 0.01fF
C332 divider_2/prescaler_0/tspc_0/a_740_n680# divider_2/prescaler_0/tspc_1/Q 0.15fF
C333 divider_2/prescaler_0/tspc_0/Z3 divider_2/prescaler_0/tspc_0/Z4 0.65fF
C334 divider_1/prescaler_0/Out divider_1/prescaler_0/tspc_1/Q 0.91fF
C335 divider_1/prescaler_0/tspc_2/a_630_n680# divider_1/prescaler_0/tspc_2/Z4 0.12fF
C336 divider_1/prescaler_0/tspc_2/Z1 divider_1/prescaler_0/tspc_2/Z2 1.07fF
C337 pd_1/tspc_r_1/Z1 pd_1/tspc_r_1/Z3 0.09fF
C338 pd_1/tspc_r_1/Z2 pd_1/REF 0.19fF
C339 pd_1/tspc_r_0/Z3 pd_1/tspc_r_0/z5 0.11fF
C340 ro_complete_0/a2 ro_complete_0/cbank_1/switch_3/vin 0.09fF
C341 ro_complete_1/a4 ro_complete_1/cbank_2/switch_0/vin 0.12fF